<?xml version="1.0"?>
<!-- generated on 2017-01-30 12:31:33.231000 by $Id: route2trips.py 22733 2017-01-27 09:58:07Z namdre $
  options: routes.rou.xml
-->
<routes xmlns:xsi="http://www.w3.org/2001/XMLSchema-instance" xsi:noNamespaceSchemaLocation="http://sumo.dlr.de/xsd/routes_file.xsd">
    <vType accel="0.8" decel="4.5" id="DEFAULT_VEHTYPE" length="3" maxSpeed="10" minGap="2" sigma="0"/>
    <trip id="0" depart="0" departPos="100" departSpeed="10" from="4/1to3/1" to="1/1to0/1"/>
</routes>
