----------- Warning Test -----------
 Run 1
Loading configuration ... done.
***Starting server on port 42715 ***
  waiting for 2 clients...
Starting process 1
Starting process 2
  client connected
  client connected
Process 1:  connection closed by SUMO  (at TraCIStep 1)
Process 2:  connection closed by SUMO  (at TraCIStep 1)
 Run 2
Loading configuration ... done.
***Starting server on port 42715 ***
  waiting for 2 clients...
Starting process 1
Starting process 2
  client connected
  client connected
Process 1:  connection closed by SUMO  (at TraCIStep 1)
Process 2:  connection closed by SUMO  (at TraCIStep 1)
