Eclipse SUMO dfrouter Version v1_10_0+0254-683009e0cb0
 Build features: Windows-10.0.19042 AMD64 MSVC 19.29.30133.0 Release Proj GUI SWIG GDAL FFmpeg OSG GL2PS Eigen
 Copyright (C) 2001-2021 German Aerospace Center (DLR) and others; https://sumo.dlr.de

Eclipse SUMO dfrouter Version v1_10_0+0254-683009e0cb0 is part of SUMO.
This program and the accompanying materials
are made available under the terms of the Eclipse Public License v2.0
which accompanies this distribution, and is available at
http://www.eclipse.org/legal/epl-v20.html
This program may also be made available under the following Secondary
Licenses when the conditions for such availability set forth in the Eclipse
Public License 2.0 are satisfied: GNU General Public License, version 2
or later which is available at
https://www.gnu.org/licenses/old-licenses/gpl-2.0-standalone.html
SPDX-License-Identifier: EPL-2.0 OR GPL-2.0-or-later
