Eclipse SUMO dfrouter Version v1_4_0+1029-d1b8be6105
 Build features: Linux-4.12.14-lp150.12.58-default x86_64 GNU 7.4.0 Release Proj GUI SWIG GDAL GL2PS Eigen
 Copyright (C) 2001-2020 German Aerospace Center (DLR) and others; https://sumo.dlr.de

Eclipse SUMO dfrouter Version v1_4_0+1029-d1b8be6105 is part of SUMO.
This program and the accompanying materials
are made available under the terms of the Eclipse Public License v2.0
which accompanies this distribution, and is available at
http://www.eclipse.org/legal/epl-v20.html
SPDX-License-Identifier: EPL-2.0
