<?xml version="1.0"?>
<!-- generated on 2017-03-22 13:20:46.217973 by $Id: route2trips.py 22929 2017-02-13 14:38:39Z behrisch $
  options: routes.rou.xml id depart from to
-->
<routes xmlns:xsi="http://www.w3.org/2001/XMLSchema-instance" xsi:noNamespaceSchemaLocation="http://sumo.dlr.de/xsd/routes_file.xsd">
    <vType accel="0.8" decel="4.5" id="DEFAULT_VEHTYPE" length="3" maxSpeed="10" minGap="2" sigma="0">
    </vType>
    <trip id="0" depart="0" from="4/1to3/1" to="1/1to0/1"/>
</routes>
