Eclipse SUMO marouter Version v1_1_0+0040-b68edb7a21e
 Build features: Windows-6.1.7601 AMD64 MSVC 18.0.40629.0 Proj GUI GDAL FFmpeg OSG GL2PS SWIG
 Copyright (C) 2001-2019 German Aerospace Center (DLR) and others; http://sumo.dlr.de
 License EPL-2.0: Eclipse Public License Version 2 <https://eclipse.org/legal/epl-v20.html>
 Use --help to get the list of options.
