<additional xmlns:xsi="http://www.w3.org/2001/XMLSchema-instance" xsi:noNamespaceSchemaLocation="http://sumo.dlr.de/xsd/additional_file.xsd">
    <edgeData id="e1det_1i_0" freq="" file="e1det_1i_0-results-aggregated.xml"/>
    <edgeData id="e1det_2i_0" freq="" file="e1det_2i_0-results-aggregated.xml"/>
    <edgeData id="e1det_3i_0" freq="" file="e1det_3i_0-results-aggregated.xml"/>
    <edgeData id="e1det_4i_0" freq="" file="e1det_4i_0-results-aggregated.xml"/>
</additional>
