Eclipse SUMO activitygen Version v1_4_0+1029-d1b8be6105
 Build features: Linux-4.12.14-lp150.12.58-default x86_64 GNU 7.4.0 Release Proj GUI SWIG GDAL GL2PS Eigen
 Copyright (C) 2001-2020 German Aerospace Center (DLR) and others; https://sumo.dlr.de
 Copyright (C) 2010-2012 Technische Universitaet Muenchen
 License EPL-2.0: Eclipse Public License Version 2 <https://eclipse.org/legal/epl-v20.html>
 Use --help to get the list of options.
