Success.
Success.
@@ -1 +1,2 @@
-<connections version="1.20">
+<?xml version="1.0" encoding="UTF-8"?>
+<connections version="1.20" xmlns:xsi="http://www.w3.org/2001/XMLSchema-instance" xsi:noNamespaceSchemaLocation="http://sumo.dlr.de/xsd/connections_file.xsd">
@@ -1 +1,2 @@
-<edges version="1.20">
+<?xml version="1.0" encoding="UTF-8"?>
+<edges version="1.20" xmlns:xsi="http://www.w3.org/2001/XMLSchema-instance" xsi:noNamespaceSchemaLocation="http://sumo.dlr.de/xsd/edges_file.xsd">
@@ -1 +1,2 @@
-<nodes version="1.20">
+<?xml version="1.0" encoding="UTF-8"?>
+<nodes version="1.20" xmlns:xsi="http://www.w3.org/2001/XMLSchema-instance" xsi:noNamespaceSchemaLocation="http://sumo.dlr.de/xsd/nodes_file.xsd">
@@ -1 +1,2 @@
-<tlLogics version="1.20">
+<?xml version="1.0" encoding="UTF-8"?>
+<tlLogics version="1.20" xmlns:xsi="http://www.w3.org/2001/XMLSchema-instance" xsi:noNamespaceSchemaLocation="http://sumo.dlr.de/xsd/tllogic_file.xsd">
@@ -1 +1,2 @@
-<types version="1.20">
+<?xml version="1.0" encoding="UTF-8"?>
+<types version="1.20" xmlns:xsi="http://www.w3.org/2001/XMLSchema-instance" xsi:noNamespaceSchemaLocation="http://sumo.dlr.de/xsd/types_file.xsd">
