Eclipse SUMO libsumo Version v1_14_1+1757-dea40b50d78
 Build features: Linux-5.15.0-47-generic x86_64 GNU 11.2.0 Release FMI Proj GUI Intl SWIG GDAL FFmpeg OSG GL2PS Eigen
 Copyright (C) 2001-2022 German Aerospace Center (DLR) and others; https://sumo.dlr.de
 License EPL-2.0: Eclipse Public License Version 2 <https://eclipse.org/legal/epl-v20.html>
 Use --help to get the list of options.
Simulation loaded
Eclipse SUMO libsumo Version v1_14_1+1757-dea40b50d78
 Build features: Linux-5.15.0-47-generic x86_64 GNU 11.2.0 Release FMI Proj GUI Intl SWIG GDAL FFmpeg OSG GL2PS Eigen
 Copyright (C) 2001-2022 German Aerospace Center (DLR) and others; https://sumo.dlr.de
 License EPL-2.0: Eclipse Public License Version 2 <https://eclipse.org/legal/epl-v20.html>
 Use --help to get the list of options.
Simulation started
