Eclipse SUMO activitygen Version v1_1_0+0040-b68edb7a21e
 Build features: Windows-6.1.7601 AMD64 MSVC 18.0.40629.0 Proj GUI GDAL FFmpeg OSG GL2PS SWIG
 Copyright (C) 2001-2019 German Aerospace Center (DLR) and others; http://sumo.dlr.de
 Copyright (C) 2010-2012 Technische Universitaet Muenchen

Eclipse SUMO activitygen Version v1_1_0+0040-b68edb7a21e is part of SUMO.
This program and the accompanying materials
are made available under the terms of the Eclipse Public License v2.0
which accompanies this distribution, and is available at
http://www.eclipse.org/legal/epl-v20.html
SPDX-License-Identifier: EPL-2.0
