Eclipse SUMO activitygen Version v1_8_0+0635-4f1a99aa91
 Build features: Windows-10.0.17763 AMD64 MSVC 19.28.29336.0 Release Proj GUI SWIG GDAL FFmpeg OSG GL2PS
 Copyright (C) 2001-2021 German Aerospace Center (DLR) and others; https://sumo.dlr.de
 Copyright (C) 2010-2012 Technische Universitaet Muenchen

Eclipse SUMO activitygen Version v1_8_0+0635-4f1a99aa91 is part of SUMO.
This program and the accompanying materials
are made available under the terms of the Eclipse Public License v2.0
which accompanies this distribution, and is available at
http://www.eclipse.org/legal/epl-v20.html
SPDX-License-Identifier: EPL-2.0
