Success.
Success.
@@ -1 +1,2 @@
-<connections version="1.20">
+<?xml version="1.0" encoding="UTF-8"?>
+<connections version="1.20" xmlns:xsi="http://www.w3.org/2001/XMLSchema-instance" xsi:noNamespaceSchemaLocation="http://sumo.dlr.de/xsd/connections_file.xsd">
@@ -1,2 +1,3 @@
-<edges version="1.20">
-    <location netOffset="-389562.46,-5817979.56" convBoundary="0.00,1140.30,2215.08,3325.27" origBoundary="13.37,52.50,13.53,52.57" projParameter="+proj=utm +zone=33 +ellps=WGS84 +datum=WGS84 +units=m +no_defs"/>
+<?xml version="1.0" encoding="UTF-8"?>
+<edges version="1.20" xmlns:xsi="http://www.w3.org/2001/XMLSchema-instance" xsi:noNamespaceSchemaLocation="http://sumo.dlr.de/xsd/edges_file.xsd">
+    <location netOffset="-389562.46,-5817979.56" convBoundary="0.00,1140.30,2215.08,3325.27" origBoundary="13.372213,52.501727,13.527402,52.569285" projParameter="+proj=utm +zone=33 +ellps=WGS84 +datum=WGS84 +units=m +no_defs"/>
@@ -1,2 +1,3 @@
-<nodes version="1.20">
-    <location netOffset="-389562.46,-5817979.56" convBoundary="0.00,1140.30,2215.08,3325.27" origBoundary="13.37,52.50,13.53,52.57" projParameter="+proj=utm +zone=33 +ellps=WGS84 +datum=WGS84 +units=m +no_defs"/>
+<?xml version="1.0" encoding="UTF-8"?>
+<nodes version="1.20" xmlns:xsi="http://www.w3.org/2001/XMLSchema-instance" xsi:noNamespaceSchemaLocation="http://sumo.dlr.de/xsd/nodes_file.xsd">
+    <location netOffset="-389562.46,-5817979.56" convBoundary="0.00,1140.30,2215.08,3325.27" origBoundary="13.372213,52.501727,13.527402,52.569285" projParameter="+proj=utm +zone=33 +ellps=WGS84 +datum=WGS84 +units=m +no_defs"/>
@@ -1 +1,2 @@
-<tlLogics version="1.20">
+<?xml version="1.0" encoding="UTF-8"?>
+<tlLogics version="1.20" xmlns:xsi="http://www.w3.org/2001/XMLSchema-instance" xsi:noNamespaceSchemaLocation="http://sumo.dlr.de/xsd/tllogic_file.xsd">
@@ -1 +1,2 @@
-<types version="1.20">
+<?xml version="1.0" encoding="UTF-8"?>
+<types version="1.20" xmlns:xsi="http://www.w3.org/2001/XMLSchema-instance" xsi:noNamespaceSchemaLocation="http://sumo.dlr.de/xsd/types_file.xsd">
