<?xml version="1.0" encoding="UTF-8"?>
<!-- generated on 2017-10-18 14:07:25.381000 by $Id: route2trips.py 26301 2017-10-02 20:48:38Z behrisch $
  options: routes.rou.xml
-->
<routes xmlns:xsi="http://www.w3.org/2001/XMLSchema-instance" xsi:noNamespaceSchemaLocation="http://sumo.dlr.de/xsd/routes_file.xsd">
    <vType id="DEFAULT_VEHTYPE" length="3" maxSpeed="10" minGap="2">
        <carFollowing-Krauss accel="0.8" decel="4.5" sigma="0" />
    </vType>
    <trip id="0" depart="0" departPos="100" departSpeed="10" from="4/1to3/1" to="1/1to0/1"/>
</routes>
